16
Coordinates from ORCA-job test
  C   -0.77652104760988     -1.42575718125104      0.18391724045929
  C   -1.60756313995599     -0.53806889720356     -0.39435262009447
  C   -1.77861334522619      0.90961752635648     -0.21720372030394
  C   -0.97952174302836      1.78290701730009      0.42001455250699
  H   -2.22215487959008     -0.93825873772062     -1.21122449327367
  H   -0.17789222645959     -1.29762114864799      1.09442849608958
  H   -0.76144791455208     -2.44044747841231     -0.22721914031177
  H   -1.18019147762733      2.85646275044371      0.37047019013355
  H   -0.18207426746101      1.45228780390721      1.08555929876687
  H   -2.62814015716091      1.32434404315939     -0.77374805545368
  C   2.88310896681110     -0.67191132004348      0.27179064430820
  C   2.01432398233530      0.17379755327450     -0.28203400656452
  H   2.55583735924917     -1.19794636920359      1.17485534211513
  H   3.90224262812790     -0.82947642077269     -0.09317779516147
  H   2.19838499601732      0.75123373086426     -1.19290892681636
  H   1.03851374321045      0.26320550437519      0.19861628523226
